sistemas/EXIC/NE224-C2/EXIC_NE224-C2JPMOD796_7.LIS
CEPEL - CENTRO DE PESQUISAS DE ENERGIA ELETRICA - PROGRAMA DE ANALISE DE REDES - V11.07.02                                 PAG.  48

 **EPE DECENAL 2032** PESADA ** ANO 2026 ** NORTE SECO                           
 RELATORIO DE EXECUCAO DO FLUXO DE POTENCIA CONTINUADO

 Opcoes Ativadas: CREM CTAP STEP BPSI NEWT RCVG RMON FILE CONT CELO ATCR INDC STPO CTAF CTAF

 X----X----------------X--------------------------X-------------X---------X
                            AUMENTO DA CARGA                               
  NUM.   CONVERGENCIA        ATIVA E REATIVA (%)   CARGA DA AREA PASSO MAX 
          STATUS    P/Q  MAXIMO    AREA    SISTEMA   MW / Mvar    P/Q (%)  
 X----X------------X---X--------X--------X--------X-------------X---------X

     0 Convergente    1    0.000    0.000    0.000 13750.06 MW      1.0000
                      1    0.000    0.000    0.000  -698.14 Mvar    0.8000
     1 Convergente    3    1.000    1.000    1.000 13887.56 MW      1.0000
                      3    0.800    0.800    0.800  -703.72 Mvar    0.8000
     2 Convergente    3    2.000    2.000    2.000 14025.06 MW      1.0000
                      3    1.600    1.600    1.600  -709.31 Mvar    0.8000
     3 Convergente    3    3.000    3.000    3.000 14162.56 MW      1.0000
                      3    2.400    2.400    2.400  -714.89 Mvar    0.8000
     4 Convergente    3    4.000    4.000    4.000 14300.06 MW      1.0000
                      3    3.200    3.200    3.200  -720.48 Mvar    0.8000
     5 Convergente    3    5.000    5.000    5.000 14437.56 MW      1.0000
                      3    4.000    4.000    4.000  -726.06 Mvar    0.8000
     6 Convergente    3    6.000    6.000    6.000 14575.06 MW      1.0000
                      3    4.800    4.800    4.800  -731.65 Mvar    0.8000
     7 Convergente    3    7.000    7.000    7.000 14712.56 MW      1.0000
                      3    5.600    5.600    5.600  -737.23 Mvar    0.8000
     8 Convergente    3    8.000    8.000    8.000 14850.06 MW      1.0000
                      3    6.400    6.400    6.400  -742.82 Mvar    0.8000
     9 Convergente    3    9.000    9.000    9.000 14987.56 MW      1.0000
                      3    7.200    7.200    7.200  -748.40 Mvar    0.8000
    10 Convergente    3   10.000   10.000   10.000 15125.06 MW      1.0000
                      3    8.000    8.000    8.000  -753.99 Mvar    0.8000
    11 Convergente    3   11.000   11.000   11.000 15262.56 MW      1.0000
                      3    8.800    8.800    8.800  -759.57 Mvar    0.8000
    12 Convergente    3   12.000   12.000   12.000 15400.06 MW      1.0000
                      3    9.600    9.600    9.600  -765.16 Mvar    0.8000
    13 Convergente    3   13.000   13.000   13.000 15537.56 MW      1.0000
                      3   10.400   10.400   10.400  -770.74 Mvar    0.8000
    14 Convergente    3   14.000   14.000   14.000 15675.06 MW      1.0000
                      3   11.200   11.200   11.200  -776.33 Mvar    0.8000
    15 Convergente    3   15.000   15.000   15.000 15812.57 MW      1.0000
                      3   12.000   12.000   12.000  -781.91 Mvar    0.8000
    16 Convergente    3   16.000   16.000   16.000 15950.07 MW      1.0000
                      3   12.800   12.800   12.800  -787.50 Mvar    0.8000
    17 Convergente    3   17.000   17.000   17.000 16087.57 MW      1.0000
                      3   13.600   13.600   13.600  -793.08 Mvar    0.8000
    18 Convergente    3   18.000   18.000   18.000 16225.07 MW      1.0000
                      3   14.400   14.400   14.400  -798.67 Mvar    0.8000
    19 Convergente    3   19.000   19.000   19.000 16362.57 MW      1.0000
                      3   15.200   15.200   15.200  -804.25 Mvar    0.8000
    20 Convergente    3   20.000   20.000   20.000 16500.07 MW      1.0000
                      3   16.000   16.000   16.000  -809.84 Mvar    0.8000
    21 Convergente    3   21.000   21.000   21.000 16637.57 MW      1.0000
                      3   16.800   16.800   16.800  -815.42 Mvar    0.8000
CEPEL - CENTRO DE PESQUISAS DE ENERGIA ELETRICA - PROGRAMA DE ANALISE DE REDES - V11.07.02                                 PAG.  49

    22.0000                                                                      
 RELATORIO DE EXECUCAO DO FLUXO DE POTENCIA CONTINUADO

 Opcoes Ativadas: CREM CTAP STEP BPSI NEWT RCVG RMON FILE CONT CELO ATCR INDC STPO CTAF CTAF

 X----X----------------X--------------------------X-------------X---------X
                            AUMENTO DA CARGA                               
  NUM.   CONVERGENCIA        ATIVA E REATIVA (%)   CARGA DA AREA PASSO MAX 
          STATUS    P/Q  MAXIMO    AREA    SISTEMA   MW / Mvar    P/Q (%)  
 X----X------------X---X--------X--------X--------X-------------X---------X

    22 Convergente    3   22.000   22.000   22.000 16775.07 MW      1.0000
                      3   17.600   17.600   17.600  -821.01 Mvar    0.8000
    23 Convergente    3   23.000   23.000   23.000 16912.57 MW      1.0000
                      3   18.400   18.400   18.400  -826.59 Mvar    0.8000
    24 Convergente    3   24.000   24.000   24.000 17050.07 MW      1.0000
                      3   19.200   19.200   19.200  -832.18 Mvar    0.8000
    25 Convergente    3   25.000   25.000   25.000 17187.57 MW      1.0000
                      3   20.000   20.000   20.000  -837.76 Mvar    0.8000
    26 Convergente    3   26.000   26.000   26.000 17325.07 MW      1.0000
                      3   20.800   20.800   20.800  -843.35 Mvar    0.8000
    27 Convergente    3   27.000   27.000   27.000 17462.57 MW      1.0000
                      3   21.600   21.600   21.600  -848.93 Mvar    0.8000
    28 Convergente    3   28.000   28.000   28.000 17600.07 MW      1.0000
                      3   22.400   22.400   22.400  -854.52 Mvar    0.8000
    29 Convergente    3   29.000   29.000   29.000 17737.57 MW      1.0000
                      3   23.200   23.200   23.200  -860.10 Mvar    0.8000
    30 Convergente    3   30.000   30.000   30.000 17875.07 MW      1.0000
                      3   24.000   24.000   24.000  -865.69 Mvar    0.8000
 
 Numero maximo de iteracoes atingido
CEPEL - CENTRO DE PESQUISAS DE ENERGIA ELETRICA - PROGRAMA DE ANALISE DE REDES - V11.07.02                                 PAG.  50

 **EPE DECENAL 2032** PESADA ** ANO 2026 ** NORTE SECO                           
 RELATORIO DE TOTAIS DE AREA

 X----X--------X--------X--------X--------X--------X--------X--------X--------X
  AREA  GERACAO  INJ EQV   CARGA   ELO CC    SHUNT   EXPORT   IMPORT   PERDAS
  NUM.    MW/      MW/      MW/      MW/     Mvar/     MW/      MW/      MW/
         Mvar     Mvar     Mvar     Mvar     EQUIV    Mvar     Mvar     Mvar
 X----X--------X--------X--------X--------X--------X--------X--------X--------X

   200  18611.5      0.0  17875.1      0.0   2800.8      0.0      0.0    736.4
        -4989.3      0.0   -865.7      0.0      0.0      0.0      0.0  -1322.8

 TOTAL  18611.5      0.0  17875.1      0.0   2800.8      0.0      0.0    736.4
        -4989.3      0.0   -865.7      0.0      0.0      0.0      0.0  -1322.8
CEPEL - CENTRO DE PESQUISAS DE ENERGIA ELETRICA - PROGRAMA DE ANALISE DE REDES - V11.07.02                                 PAG.  51

 **EPE DECENAL 2032** PESADA ** ANO 2026 ** NORTE SECO                           
 Listagem dos casos armazenados de Fluxo de Potencia - ANAREDE
 Arquivo Historico: C:\USERS\JOAOPEDROPETERSBARBO\DROPBOX\GITPYANA\PYANA\SISTEMAS\EXIC\NE224-C2\EXLF
 X----X-------------------------------------------------------------------------------------X
  CASO                      INFORMACOES DO CASO GRAVADO
 X----X-------------------------------------------------------------------------------------X

     1 DATA: 12/01/2025 / HORA: 17:10:23   / VERSAO DO PROGRAMA: V11.07.02             
 --------------------------------------------------------------------------------
                                   Comentarios                                   
 --------------------------------------------------------------------------------
     (-------------------------------- Comentarios ------------------------------
 ---)                                                                            
 SISTEMA NE REDUZIDO                                                             
CEPEL - CENTRO DE PESQUISAS DE ENERGIA ELETRICA - PROGRAMA DE ANALISE DE REDES - V11.07.02                                 PAG.  52

 **EPE DECENAL 2032** PESADA ** ANO 2026 ** NORTE SECO                           
 RELATORIO DE PADRAO PARA OPCOES DE EXECUCAO

 X------X------X------X------X------X------X------X------X------X------X
  OPCAO  OPCAO  OPCAO  OPCAO  OPCAO  OPCAO  OPCAO  OPCAO  OPCAO  OPCAO
  NOME E NOME E NOME E NOME E NOME E NOME E NOME E NOME E NOME E NOME E
 X----X-X----X-X----X-X----X-X----X-X----X-X----X-X----X-X----X-X----X-X

  CREM L CTAP L STEP L NEWT L RCVG L RMON L FILE L SUBS L CONT L NOVO L
  CELO L MFCT L ATCR L INDC L AREG L STPO L VLCR L CPHS L


 *** AVISO ***: Nao foram encontradas inconsistencias no arquivo historico e ele sera restabelecido normalmente.
CEPEL - CENTRO DE PESQUISAS DE ENERGIA ELETRICA - PROGRAMA DE ANALISE DE REDES - V11.07.02                                 PAG.  53

 **EPE DECENAL 2032** PESADA ** ANO 2026 ** NORTE SECO                           
 RELATORIO DE CONVERGENCIA

 OPCOES ATIVADAS: CREM CTAP STEP BPSI NEWT RCVG RMON FILE CONT CELO ATCR INDC STPO VLCR CPHS





 CONVERGENCIA FINAL

 X-----------X------X------X---------------X---------------X---------------X
    ITERACAO          FREQ. ERRO MAX BARRA  ERRO MAX BARRA  ERRO MAX  CONV  
  FC  P  Q  V  M.O.   (Hz)      MW    NUM.     Mvar   NUM.  TENSAO %  NUM.  
 X--X--X--X--X------X------X---------X-----X---------X-----X---------X-----X

   0                             0.00     0      0.00     0
      0  0  0 1.0000 60.000      0.00   587      0.00   500     0.000     0
CEPEL - CENTRO DE PESQUISAS DE ENERGIA ELETRICA - PROGRAMA DE ANALISE DE REDES - V11.07.02                                 PAG.  54

 **EPE DECENAL 2032** PESADA ** ANO 2026 ** NORTE SECO                           

 --- CASO ANAREDE 08 GRAVADO. ---
 **EPE DECENAL 2032** PESADA ** ANO 2026 ** NORTE SECO                           

